test
 OpenBabel10102321063D

 18 18  0  0  1  0  0  0  0  0999 V2000
    1.3690   -0.2288   -0.0661 C   0  0  0  0  0  0  0  0  0  0  0  0
    0.4922   -1.3127    0.0234 C   0  0  0  0  0  0  0  0  0  0  0  0
   -0.8830   -1.0969    0.0551 C   0  0  0  0  0  0  0  0  0  0  0  0
   -1.3836    0.2022    0.0061 C   0  0  0  0  0  0  0  0  0  0  0  0
   -0.5078    1.2868   -0.0841 C   0  0  0  0  0  0  0  0  0  0  0  0
    0.8813    1.0866   -0.1270 C   0  0  0  0  0  0  0  0  0  0  0  0
    1.8149    2.2754   -0.2639 C   0  0  3  0  0  0  0  0  0  0  0  0
    2.7671    2.4170    0.9223 C   0  0  0  0  0  0  0  0  0  0  0  0
    2.5961    2.1959   -1.4993 N   0  3  0  0  0  1  0  0  0  0  0  0
    2.4394   -0.4217   -0.1066 H   0  0  0  0  0  0  0  0  0  0  0  0
    0.8841   -2.3258    0.0570 H   0  0  0  0  0  0  0  0  0  0  0  0
   -1.5650   -1.9407    0.1130 H   0  0  0  0  0  0  0  0  0  0  0  0
   -2.4570    0.3725    0.0293 H   0  0  0  0  0  0  0  0  0  0  0  0
   -0.9231    2.2919   -0.1315 H   0  0  0  0  0  0  0  0  0  0  0  0
    1.2185    3.1939   -0.3207 H   0  0  0  0  0  0  0  0  0  0  0  0
    3.4300    1.5511    1.0300 H   0  0  0  0  0  0  0  0  0  0  0  0
    2.2087    2.5260    1.8589 H   0  0  0  0  0  0  0  0  0  0  0  0
    3.3990    3.3059    0.8089 H   0  0  0  0  0  0  0  0  0  0  0  0
  1  2  1  0  0  0  0
  1  6  2  0  0  0  0
  1 10  1  0  0  0  0
  2  3  2  0  0  0  0
  2 11  1  0  0  0  0
  3  4  1  0  0  0  0
  3 12  1  0  0  0  0
  4  5  2  0  0  0  0
  4 13  1  0  0  0  0
  5  6  1  0  0  0  0
  5 14  1  0  0  0  0
  6  7  1  0  0  0  0
  7  8  1  0  0  0  0
  7  9  1  0  0  0  0
  7 15  1  0  0  0  0
  8 16  1  0  0  0  0
  8 17  1  0  0  0  0
  8 18  1  0  0  0  0
M  CHG  1   9   1
M  END
$$$$
